System Matpower Format/npcc_original.m
function mpc = npcc_original
%NPCC

%% MATPOWER Case Format : Version 2
mpc.version = '2';

%%-----  Power Flow Data  -----%%
%% system MVA base
mpc.baseMVA = 100;

%% bus data
%	bus_i	type	Pd	Qd	Gs	Bs	area	Vm	Va	baseKV	zone	Vmax	Vmin
mpc.bus = [
	1	1	0	0	0	0	1	1.01517	4.8434	345	1	1.1	0.9;
	2	1	0	0	0	0	1	1.0109	4.0566	345	1	1.1	0.9;
	3	1	11.1796635	88	0	0	1	0.9917	4.0069	115	1	1.1	0.9;
	4	1	0	0	0	0	1	1.01125	4.1005	345	1	1.1	0.9;
	5	1	0	0	0	0	1	1.00618	2.3527	345	1	1.1	0.9;
	6	1	397.499146	153	0	0	1	1.00594	1.8603	345	1	1.1	0.9;
	7	1	408.678809	32	0	0	1	1.02071	3.2654	345	1	1.1	0.9;
	8	1	0	0	0	0	1	1.02151	1.9975	115	1	1.1	0.9;
	9	1	196.265203	30	0	0	1	1.01811	1.0727	115	1	1.1	0.9;
	10	1	0	0	0	0	1	1.0306	8.0176	115	1	1.1	0.9;
	11	1	844.685684	103	0	0	1	1.01169	6.7075	115	1	1.1	0.9;
	12	1	340.358643	115	0	0	1	1.02371	5.9431	115	1	1.1	0.9;
	13	1	0	0	0	0	1	1.04565	10.6737	345	1	1.1	0.9;
	14	1	308.061838	85	0	0	1	1.0395	10.3866	345	1	1.1	0.9;
	15	1	383.835112	-92	0	0	1	1.02697	3.4395	345	1	1.1	0.9;
	16	1	224	47	0	0	1	1.04108	4.4713	345	1	1.1	0.9;
	17	1	172.663691	17	0	0	1	1.04016	3.2759	345	1	1.1	0.9;
	18	1	349.053937	76	0	0	1	1.0257	1.5065	115	1	1.1	0.9;
	19	1	255.890075	28	0	0	1	1.04132	6.4689	345	1	1.1	0.9;
	20	1	352.780492	27	0	0	1	1.04211	9.1477	345	1	1.1	0.9;
	21	2	0	0	0	0	1	1.0486	11.8582	24	1	1.1	0.9;
	22	2	0	0	0	0	1	1.0593	12.6562	18	1	1.1	0.9;
	23	2	0	0	0	0	1	1.0157	11.7526	20	1	1.1	0.9;
	24	2	0	0	0	0	1	1.07625	15.7768	22.8	1	1.1	0.9;
	25	2	0	0	0	0	1	1.06	18.3042	20	1	1.1	0.9;
	26	2	0	0	0	0	1	1.0455	15.7134	20	1	1.1	0.9;
	27	2	0	0	0	0	1	1.0455	11.069	22	1	1.1	0.9;
	28	1	0	0	0	0	1	1.02751	3.2234	13.8	1	1.1	0.9;
	29	1	0	0	0	0	1	1.02751	3.2234	345	1	1.1	0.9;
	30	1	399.983515	2	0	0	1	1.01622	0.7209	345	1	1.1	0.9;
	31	1	621.092415	184	0	0	1	0.99761	0.3966	345	1	1.1	0.9;
	32	1	0	0	0	0	1	1.00329	1.845	345	1	1.1	0.9;
	33	1	0	0	0	0	1	1.00627	2.5437	345	1	1.1	0.9;
	34	1	290.67125	84	0	0	1	0.99603	0.4986	345	1	1.1	0.9;
	35	1	648.420481	177	0	0	1	0.99524	0.0743	345	1	1.1	0.9;
	36	2	11.1796635	5	0	0	1	1.0486	9.963	345	1	1.1	0.9;
	37	1	0	0	0	0	2	1.04419	4.6062	345	1	1.1	0.9;
	38	1	0	0	0	0	2	1.0421	6.9752	345	1	1.1	0.9;
	39	1	0	0	0	0	2	1.041	3.2739	345	1	1.1	0.9;
	40	1	0	0	0	0	2	1.03072	0.5762	230	1	1.1	0.9;
	41	1	809.143671	125	0	0	2	1.02634	-3.3709	115	1	1.1	0.9;
	42	2	204.597757	17	0	0	2	1.04	-2.5665	115	1	1.1	0.9;
	43	1	0	0	0	0	2	1.04908	8.343	345	1	1.1	0.9;
	44	1	0	0	0	0	2	1.04792	6.5696	230	1	1.1	0.9;
	45	1	295.9154	17	0	0	2	1.04349	3.9472	115	1	1.1	0.9;
	46	1	26.5861492	-42.5	0	0	2	1.04781	6.185	115	1	1.1	0.9;
	47	2	610.325512	100	0	0	2	1.03	11.6793	230	1	1.1	0.9;
	48	2	0	0	0	0	2	1.05	15.0127	230	1	1.1	0.9;
	49	1	240.431262	17	0	0	2	0.96523	-1.1162	115	1	1.1	0.9;
	50	2	0	0	0	0	2	1.05	13.2144	345	1	1.1	0.9;
	51	2	844.977176	75	0	0	2	1.04	8.5283	115	1	1.1	0.9;
	52	1	0	0	0	0	2	1.04193	19.413	345	1	1.1	0.9;
	53	2	1066.91373	250	0	0	2	1.03	18.0053	115	1	1.1	0.9;
	54	2	20	0	0	0	2	1.0408	26.9321	230	1	1.1	0.9;
	55	2	939	132	0	0	2	1.04	26.2095	230	1	1.1	0.9;
	56	2	198.818159	44	0	0	2	1.03	26.8995	230	1	1.1	0.9;
	57	2	277.420687	-6	0	0	2	1.03	25.7233	115	1	1.1	0.9;
	58	1	97.0972405	38	0	0	2	1.0101	24.5883	230	1	1.1	0.9;
	59	1	814.923268	198	0	0	2	0.99669	22.1857	115	1	1.1	0.9;
	60	2	0	0	0	0	2	1.04	30.2181	230	1	1.1	0.9;
	61	2	273.952928	8	0	0	2	1.04	26.727	115	1	1.1	0.9;
	62	1	0	0	0	0	2	1.01628	23.9633	230	1	1.1	0.9;
	63	1	0	0	0	0	2	1.00548	17.6467	230	1	1.1	0.9;
	64	1	165.296493	25	0	0	2	1.00715	14.5476	115	1	1.1	0.9;
	65	2	105.188677	0	0	0	2	1.04	15.7558	115	1	1.1	0.9;
	66	1	0	0	0	0	2	1.01975	20.8736	345	1	1.1	0.9;
	67	1	0	0	0	0	2	1.00265	16.6813	230	1	1.1	0.9;
	68	2	243.899021	41	0	0	2	0.99	12.7432	115	1	1.1	0.9;
	69	1	0	0	0	0	2	1.01948	14.3356	345	1	1.1	0.9;
	70	1	0	0	0	0	2	0.99894	13.5662	230	1	1.1	0.9;
	71	2	428.846145	53	0	0	2	1	11.1142	115	1	1.1	0.9;
	72	2	0	0	0	0	2	1.05	10.1183	115	1	1.1	0.9;
	73	1	0	0	0	0	3	1.03292	1.6376	345	1	1.1	0.9;
	74	1	117.903792	0	0	0	3	1.02708	0.2979	345	1	1.1	0.9;
	75	1	0	0	0	0	3	1.04944	1.2631	138	1	1.1	0.9;
	76	1	0	0	0	0	3	1.04639	0.7974	345	1	1.1	0.9;
	77	1	0	0	0	0	3	1.03539	0.5458	345	1	1.1	0.9;
	78	3	2311.83906	600	0	0	3	1.02	0	345	1	1.1	0.9;
	79	2	0	0	0	0	3	1.05	8.1715	22	1	1.1	0.9;
	80	2	809.143671	25	0	0	3	1.0232	0.6309	138	1	1.1	0.9;
	81	1	0	0	0	0	3	1.02198	-3.2846	345	1	1.1	0.9;
	82	2	0	0	0	0	3	1.05	7.568	22	1	1.1	0.9;
	83	1	80	16	0	0	4	0.95576	22.9842	220	1	1.1	0.9;
	84	1	0	0	0	0	4	0.96323	23.4874	118.1	1	1.1	0.9;
	85	1	18	0	0	0	4	0.99128	36.4486	220	1	1.1	0.9;
	86	2	50	25	0	0	4	1	41.7274	24	1	1.1	0.9;
	87	1	0	0	0	0	4	1.01813	33.652	220	1	1.1	0.9;
	88	1	110	55	0	0	4	0.97335	32.8563	220	1	1.1	0.9;
	89	1	100	70	0	0	4	0.95584	30.2514	220	1	1.1	0.9;
	90	1	115	45	0	0	4	0.95411	30.102	220	1	1.1	0.9;
	91	2	1650	500	0	0	4	1.04	11.2134	220	1	1.1	0.9;
	92	2	10	320	0	0	4	1.04	18.6819	500	1	1.1	0.9;
	93	1	125	0	0	0	4	0.96211	7.5454	220	1	1.1	0.9;
	94	1	95	0	0	0	4	0.95948	7.7792	220	1	1.1	0.9;
	95	1	-100	87	0	0	4	0.97264	14.6338	220	1	1.1	0.9;
	96	1	-40	-25	0	0	4	1.02323	15.2006	13.8	1	1.1	0.9;
	97	2	910	50	0	0	4	1.04	14.0482	220	1	1.1	0.9;
	98	2	0	0	0	0	4	1.04	31.9721	220	1	1.1	0.9;
	99	1	0	0	0	0	4	1.03842	31.3229	220	1	1.1	0.9;
	100	1	0	0	0	0	4	1.03248	26.3181	220	1	1.1	0.9;
	101	2	350	130	0	0	4	1.05	24.3484	220	1	1.1	0.9;
	102	1	0	0	0	0	4	1.0455	25.5246	220	1	1.1	0.9;
	103	1	0	0	0	0	4	1.04629	25.3162	220	1	1.1	0.9;
	104	1	200	90	0	0	4	0.99699	13.174	220	1	1.1	0.9;
	105	1	325	0	0	0	4	0.97457	24.1225	220	1	1.1	0.9;
	106	1	0	-12	0	0	4	0.99289	14.5859	220	1	1.1	0.9;
	107	1	0	-19	0	0	4	1.00616	15.9332	220	1	1.1	0.9;
	108	1	0	-13	0	0	4	1.00033	13.9155	220	1	1.1	0.9;
	109	1	0	-13	0	0	4	1.00029	13.891	220	1	1.1	0.9;
	110	1	718	125	0	0	4	1.00281	12.4399	220	1	1.1	0.9;
	111	1	399	45	0	0	4	0.96194	10.0383	220	1	1.1	0.9;
	112	1	0	0	0	0	4	0.97541	29.6056	220	1	1.1	0.9;
	113	1	206	0	0	0	4	0.9523	22.4473	118.1	1	1.1	0.9;
	114	1	0	90	0	0	5	0.95972	30.6392	220	1	1.1	0.9;
	115	2	100	0	0	0	5	1.02	33.4478	500	1	1.1	0.9;
	116	1	200	0	0	0	5	0.99338	26.85	220	1	1.1	0.9;
	117	1	400	97	0	0	5	1.00506	30.8651	230	1	1.1	0.9;
	118	1	280	86	0	0	5	0.99857	31.7891	115	1	1.1	0.9;
	119	2	750	200	0	0	5	1	30.2408	220	1	1.1	0.9;
	120	2	946	-40	0	0	5	1.02	26.6696	220	1	1.1	0.9;
	121	2	0	0	0	0	5	1.04	32.8926	220	1	1.1	0.9;
	122	2	0	0	0	0	5	1.05	32.3212	220	1	1.1	0.9;
	123	2	63	10	0	0	5	1.01	37.6123	230	1	1.1	0.9;
	124	1	370	49	0	0	6	1.04471	2.3841	230	1	1.1	0.9;
	125	1	320	5	0	0	6	1.02196	-3.416	230	1	1.1	0.9;
	126	1	450	0	0	0	6	1.02261	-5.3945	230	1	1.1	0.9;
	127	1	200	-150	0	0	6	1.04853	6.552	500	1	1.1	0.9;
	128	1	1121.24194	-102	0	0	6	1.03926	2.7377	500	1	1.1	0.9;
	129	1	610	-50	0	0	6	1.02303	8.9401	500	1	1.1	0.9;
	130	2	180	0	0	0	6	1.02	12.1966	500	1	1.1	0.9;
	131	1	1160	-432	0	0	6	1.02604	13.4125	500	1	1.1	0.9;
	132	1	210	-337	0	0	6	1.03978	19.5565	500	1	1.1	0.9;
	133	2	0	0	0	0	6	1.02	34.348	500	1	1.1	0.9;
	134	2	0	0	0	0	6	1.03	25.5764	230	1	1.1	0.9;
	135	2	170	0	0	0	6	1.02	35.0063	500	1	1.1	0.9;
	136	1	270	223	0	0	6	1.00058	19.7176	345	1	1.1	0.9;
	137	2	0	0	0	0	6	1.04	20.3245	230	1	1.1	0.9;
	138	1	110	64	0	0	6	0.97073	13.5527	230	1	1.1	0.9;
	139	2	0	0	0	0	6	1.01	29.378	345	1	1.1	0.9;
	140	1	0	0	0	0	6	1.04132	30.2102	230	1	1.1	0.9;
];

%% generator data
%	bus	Pg	Qg	Qmax	Qmin	Vg	mBase	status	Pmax	Pmin	Pc1	Pc2	Qc1min	Qc1max	Qc2min	Qc2max	ramp_agc	ramp_10	ramp_30	ramp_q	apf
mpc.gen = [
	21	650	215.117	999	-999	1.0486	750	1	1793.93322	0	0	0	0	0	0	0	0	0	0	0	0;
	22	632	208.118	999	-999	1.0593	700	1	412.624315	0	0	0	0	0	0	0	0	0	0	0	0;
	23	276.65	10.788	999	-999	1.0157	300	1	180.231046	0	0	0	0	0	0	0	0	0	0	0	0;
	23	226.35	8.827	9999	-9999	1.0157	300	1	181.476826	0	0	0	0	0	0	0	0	0	0	0	0;
	24	700	261.533	999	-999	1.07625	800	1	596.869973	0	0	0	0	0	0	0	0	0	0	0	0;
	25	560	108.222	999	-999	1.06	650	1	333.659703	0	0	0	0	0	0	0	0	0	0	0	0;
	26	800	27.488	999	-999	1.0455	900	1	281.047831	0	0	0	0	0	0	0	0	0	0	0	0;
	27	540	37.044	999	-999	1.0455	600	1	1535.86381	0	0	0	0	0	0	0	0	0	0	0	0;
	36	554	217.901	999	-999	1.0486	650	1	1645.49178	0	0	0	0	0	0	0	0	0	0	0	0;
	42	370	134.949	999	-999	1.04	400	1	568.003995	0	0	0	0	0	0	0	0	0	0	0	0;
	47	400	-3.268	999	-999	1.03	450	1	944.920662	0	0	0	0	0	0	0	0	0	0	0	0;
	48	400	107.452	999	-999	1.05	500	1	40.0600457	0	0	0	0	0	0	0	0	0	0	0	0;
	50	600	41.18	999	-999	1.05	700	1	1785.45753	0	0	0	0	0	0	0	0	0	0	0	0;
	51	141	20.685	999	-999	1.04	150	1	473.126358	0	0	0	0	0	0	0	0	0	0	0	0;
	53	833	173.977	999	-999	1.03	100	1	1246.75388	0	0	0	0	0	0	0	0	0	0	0	0;
	54	557.5	-0.649	999	-999	1.0408	650	1	800	0	0	0	0	0	0	0	0	0	0	0	0;
	54	557.5	-0.649	9999	-9999	1.0408	650	1	800	0	0	0	0	0	0	0	0	0	0	0	0;
	55	1095	148.655	999	-999	1.04	1200	1	800	0	0	0	0	0	0	0	0	0	0	0	0;
	56	410	87.207	999	-999	1.03	500	1	2008.56918	0	0	0	0	0	0	0	0	0	0	0	0;
	57	298	3.534	999	-999	1.03	350	1	58.0820776	0	0	0	0	0	0	0	0	0	0	0	0;
	60	410	54.828	999	-999	1.04	450	1	241.530822	0	0	0	0	0	0	0	0	0	0	0	0;
	61	194	13.18	999	-999	1.04	200	1	536.638127	0	0	0	0	0	0	0	0	0	0	0	0;
	65	91	51.625	999	-999	1.04	100	1	12.0864155	0	0	0	0	0	0	0	0	0	0	0	0;
	68	66	-0.14	999	-999	0.99	100	1	437.870205	0	0	0	0	0	0	0	0	0	0	0	0;
	71	134	-373.66	999	-999	1	100	1	1039.81975	0	0	0	0	0	0	0	0	0	0	0	0;
	72	150	379.422	999	-999	1.05	100	1	308.320782	0	0	0	0	0	0	0	0	0	0	0	0;
	78	466.019	74.01	999	-999	1.02	100	1	565.099092	0	0	0	0	0	0	0	0	0	0	0	0;
	79	1000	257.345	999	-999	1.05	1150	1	577.453484	0	0	0	0	0	0	0	0	0	0	0	0;
	80	720	-0.078	999	-999	1.0232	800	1	584.929342	0	0	0	0	0	0	0	0	0	0	0	0;
	82	460	125.095	999	-999	1.05	500	1	619.623976	0	0	0	0	0	0	0	0	0	0	0	0;
	86	1650	251.799	999	-999	1	1900	1	800	0	0	0	0	0	0	0	0	0	0	0	0;
	91	930	1082.086	9999	-9999	1.04	100	1	800	0	0	0	0	0	0	0	0	0	0	0	0;
	92	450	324.468	999	-999	1.04	100	1	800	0	0	0	0	0	0	0	0	0	0	0	0;
	97	600	96.902	999	-999	1.04	100	1	800	0	0	0	0	0	0	0	0	0	0	0	0;
	98	585	33.013	999	-999	1.04	650	1	102.529909	0	0	0	0	0	0	0	0	0	0	0	0;
	101	1200	506.878	999	-999	1.05	1350	1	800	0	0	0	0	0	0	0	0	0	0	0	0;
	115	550	269.536	999	-999	1.02	100	1	822.002397	0	0	0	0	0	0	0	0	0	0	0	0;
	119	550	145.624	999	-999	1	100	1	1163.72156	0	0	0	0	0	0	0	0	0	0	0	0;
	120	700	57.157	999	-999	1.02	100	1	2085.23345	0	0	0	0	0	0	0	0	0	0	0	0;
	121	145	157.85	999	-999	1.04	100	1	1456.93436	0	0	0	0	0	0	0	0	0	0	0	0;
	122	155	127.774	999	-999	1.05	100	1	1110.62043	0	0	0	0	0	0	0	0	0	0	0	0;
	123	655	58.623	999	-999	1.01	100	1	2200.24661	0	0	0	0	0	0	0	0	0	0	0	0;
	130	490	-467.86	999	-999	1.02	100	1	2487.70936	0	0	0	0	0	0	0	0	0	0	0	0;
	133	1700	-141.013	999	-999	1.02	100	1	3186.13607	0	0	0	0	0	0	0	0	0	0	0	0;
	134	880	43.093	999	-999	1.03	100	1	2932.80502	0	0	0	0	0	0	0	0	0	0	0	0;
	135	2330	-100.279	999	-999	1.02	100	1	1539.43821	0	0	0	0	0	0	0	0	0	0	0	0;
	137	70	174.6	999	-999	1.04	100	1	1633.2871	0	0	0	0	0	0	0	0	0	0	0	0;
	139	115	18.439	999	-999	1.01	100	1	1193.01815	0	0	0	0	0	0	0	0	0	0	0	0;
];

%% branch data
%	fbus	tbus	r	x	b	rateA	rateB	rateC	ratio	angle	status	angmin	angmax
mpc.branch = [
	1	2	0.0004	0.0043	0.07	2500	0	0	0	0	1	-360	360;
	1	4	0.0004	0.0043	0.07	2500	0	0	0	0	1	-360	360;
	2	33	0.0007	0.0082	0.14	2500	0	0	0	0	1	-360	360;
	4	5	0.0009	0.0101	0.17	2500	0	0	0	0	1	-360	360;
	5	6	0.0018	0.0217	0.37	2500	0	0	0	0	1	-360	360;
	5	31	0.0008	0.0129	0.14	2500	0	0	0	0	1	-360	360;
	6	7	0.0009	0.0094	0.17	2500	0	0	0	0	1	-360	360;
	7	8	0.0007	0.0089	0.13	2500	0	0	0	0	1	-360	360;
	7	10	0.0016	0.0195	0.3	2500	0	0	0	0	1	-360	360;
	7	12	0.0008	0.0135	0.25	2500	0	0	0	0	1	-360	360;
	7	15	0.0003	0.0059	0.07	2500	0	0	0	0	1	-360	360;
	8	9	0.0007	0.0082	0.13	2500	0	0	0	0	1	-360	360;
	8	18	0.0013	0.0173	0.32	2500	0	0	0	0	1	-360	360;
	9	30	0.0011	0.0133	0.21	2500	0	0	0	0	1	-360	360;
	12	13	0.0008	0.014	0.26	2500	0	0	0	0	1	-360	360;
	13	14	0.0006	0.0096	0.18	2500	0	0	0	0	1	-360	360;
	14	15	0.0022	0.035	0.36	2500	0	0	0	0	1	-360	360;
	16	17	0.0032	0.0323	0.53	2500	0	0	0	0	1	-360	360;
	16	29	0.007	0.0086	0.15	2500	0	0	0	0	1	-360	360;
	17	18	0.0014	0.0147	0.24	2500	0	0	0	0	1	-360	360;
	17	19	0.0043	0.0474	0.78	2500	0	0	0	0	1	-360	360;
	17	20	0.0057	0.0625	1.03	2500	0	0	0	0	1	-360	360;
	19	20	0.0014	0.0151	0.25	2500	0	0	0	0	1	-360	360;
	29	30	0.0013	0.0151	0.26	2500	0	0	0	0	1	-360	360;
	29	37	0.0035	0.0411	0.7	1206.77007	0	0	0	0	1	-360	360;
	30	31	0.0013	0.0213	0.22	2500	0	0	0	0	1	-360	360;
	31	32	0.0008	0.0128	0.13	2500	0	0	0	0	1	-360	360;
	32	33	0.0002	0.0026	0.04	2500	0	0	0	0	1	-360	360;
	32	35	0.0008	0.0112	0.15	2500	0	0	0	0	1	-360	360;
	33	34	0.0006	0.0092	0.11	2500	0	0	0	0	1	-360	360;
	34	35	0.0004	0.0046	0.08	2500	0	0	0	0	1	-360	360;
	35	73	0.0023	0.0363	0.38	1206.77007	0	0	0	0	1	-360	360;
	37	38	0.0016	0.0163	0.25	2500	0	0	0	0	1	-360	360;
	37	39	0.0008	0.0074	0.48	2500	0	0	0	0	1	-360	360;
	37	40	0.0009	0.0315	0.06	2500	0	0	0	0	1	-360	360;
	37	43	0.0013	0.0188	1.31	2500	0	0	0	0	1	-360	360;
	38	69	0.0043	0.0485	0.79	2500	0	0	0	0	1	-360	360;
	39	73	0.0019	0.0183	0.29	2500	0	0	0	0	1	-360	360;
	39	73	0.0019	0.0183	0.29	2500	0	0	0	0	1	-360	360;
	40	44	0.008	0.053	0.4	2500	0	0	0	0	1	-360	360;
	41	42	0.0018	0.0089	0.07	2500	0	0	0	0	1	-360	360;
	41	45	0.0776	0.2241	0.13	2500	0	0	0	0	1	-360	360;
	43	44	0	0.011	0	2500	0	0	0	0	1	-360	360;
	43	50	0.0025	0.0268	0.4	2500	0	0	0	0	1	-360	360;
	43	50	0.0025	0.0268	0.4	2500	0	0	0	0	1	-360	360;
	44	45	0	0.0205	0	2500	0	0	0	0	1	-360	360;
	44	48	0.015	0.105	0.79	2500	0	0	0	0	1	-360	360;
	45	46	0.1235	0.3548	0.16	2500	0	0	0	0	1	-360	360;
	45	51	0.0605	0.1896	0.08	2500	0	0	0	0	1	-360	360;
	45	71	0.1751	0.5575	0.12	2500	0	0	0	0	1	-360	360;
	46	47	0.0632	0.121	0.05	2500	0	0	0	0	1	-360	360;
	46	49	0.164	0.578	0.06	2500	0	0	0	0	1	-360	360;
	47	48	0	0.033	0	2500	0	0	0	0	1	-360	360;
	50	51	0	0.0207	0	2500	0	0	0	0	1	-360	360;
	50	52	0.002	0.022	1.28	2500	0	0	0	0	1	-360	360;
	51	53	0.0844	0.2161	0.22	2500	0	0	0	0	1	-360	360;
	51	72	0.0051	0.0232	0.3	2500	0	0	0	0	1	-360	360;
	52	53	0.0014	0.0388	0	2500	0	0	0	0	1	-360	360;
	53	55	0.03	0.107	0.3	789.941803	0	0	0	0	1	-360	360;
	53	65	0.035	0.08	0.05	2500	0	0	0	0	1	-360	360;
	54	56	0.01	0.008	0.07	789.941803	0	0	0	0	1	-360	360;
	54	62	0.008	0.069	0.13	789.941803	0	0	0	0	1	-360	360;
	54	102	0.0016	0.0248	0.06	2500	0	0	0	0	1	-360	360;
	54	103	0.0016	0.0248	0.06	2500	0	0	0	0	1	-360	360;
	55	57	0.0074	0.04	0.02	789.941803	0	0	0	0	1	-360	360;
	55	59	0.016	0.0817	0.04	789.941803	0	0	0	0	1	-360	360;
	56	58	0.002	0.015	0.11	2500	0	0	0	0	1	-360	360;
	57	59	0.014	0.068	0.03	2500	0	0	0	0	1	-360	360;
	58	60	0.0035	0.0344	0.27	2500	0	0	0	0	1	-360	360;
	58	62	0.002	0.018	0.03	2500	0	0	0	0	1	-360	360;
	59	61	0.068	0.143	0.06	2500	0	0	0	0	1	-360	360;
	60	140	0.0039	0.0363	0.07	773.970762	0	0	0	0	1	-360	360;
	62	63	0.0129	0.0803	0.15	2500	0	0	0	0	1	-360	360;
	63	64	0	0.046	0	2500	0	0	0	0	1	-360	360;
	63	67	0.012	0.093	0.18	2500	0	0	0	0	1	-360	360;
	64	65	0.035	0.08	0.05	2500	0	0	0	0	1	-360	360;
	64	68	0.0988	0.231	0.13	2500	0	0	0	0	1	-360	360;
	66	67	0	0.0231	0	2500	0	0	0	0	1	-360	360;
	66	69	0.0018	0.0274	0.27	2500	0	0	0	0	1	-360	360;
	66	134	0.00076	0.01141	1.16	773.970762	0	0	0	0	1	-360	360;
	67	68	0	0.049	0	2500	0	0	0	0	1	-360	360;
	67	70	0.007	0.0619	0.12	2500	0	0	0	0	1	-360	360;
	67	138	0.0063	0.0491	0.09	2500	0	0	0	0	1	-360	360;
	68	71	0.1203	0.2048	0.07	2500	0	0	0	0	1	-360	360;
	69	71	0	0.0375	0	2500	0	0	0	0	1	-360	360;
	70	71	0	0.049	0	2500	0	0	0	0	1	-360	360;
	71	72	0.0053	0.0135	0.1	2500	0	0	0	0	1	-360	360;
	73	74	0.0022	0.0196	0.34	2500	0	0	0	0	1	-360	360;
	73	74	0.0022	0.0196	0.34	2500	0	0	0	0	1	-360	360;
	74	77	0.0003	0.0043	0.08	2500	0	0	0	0	1	-360	360;
	74	78	0.0005	0.0045	0.32	2500	0	0	0	0	1	-360	360;
	74	78	0.0005	0.0045	0.32	2500	0	0	0	0	1	-360	360;
	75	124	0.0007	0.0175	1.39	2500	0	0	0	0	1	-360	360;
	76	77	0.003	0.0068	1.37	2500	0	0	0	0	1	-360	360;
	78	79	0.0003	0.0153	0	2500	0	0	0	0	1	-360	360;
	78	80	0.0135	0.0582	0.5	2500	0	0	0	0	1	-360	360;
	78	81	0.0005	0.0276	0	2500	0	0	0	0	1	-360	360;
	78	82	0.0005	0.0308	0	2500	0	0	0	0	1	-360	360;
	81	125	0.0001	0.0011	0	2500	0	0	0	0	1	-360	360;
	83	112	0.0185	0.1537	0	176.592906	0	0	0	0	1	-360	360;
	83	113	0.0037	0.0202	0	176.592906	0	0	0	0	1	-360	360;
	84	116	0.0015	0.1045	0	2500	0	0	0	0	1	-360	360;
	85	88	0.0016	0.0202	0.03	2500	0	0	0	0	1	-360	360;
	85	88	0.0016	0.0202	0.03	2500	0	0	0	0	1	-360	360;
	85	105	0.01	0.109	0.18	2500	0	0	0	0	1	-360	360;
	85	105	0.01	0.109	0.18	2500	0	0	0	0	1	-360	360;
	85	112	0.0069	0.0595	0.1	2500	0	0	0	0	1	-360	360;
	85	112	0.0069	0.0595	0.1	2500	0	0	0	0	1	-360	360;
	87	115	0.0001	0.0018	0.02	176.592906	0	0	0	0	1	-360	360;
	88	89	0.0005	0.0205	0	2500	0	0	0	0	1	-360	360;
	88	105	0.0112	0.0993	0.17	2500	0	0	0	0	1	-360	360;
	88	105	0.0112	0.0993	0.17	2500	0	0	0	0	1	-360	360;
	89	90	0.0013	0.0049	0	2500	0	0	0	0	1	-360	360;
	89	105	0.0894	0.3363	0	2500	0	0	0	0	1	-360	360;
	89	113	0.1456	0.4115	0	2500	0	0	0	0	1	-360	360;
	90	114	0.0024	0.015	0	176.592906	0	0	0	0	1	-360	360;
	91	92	0.0058	0.0928	0	2500	0	0	0	0	1	-360	360;
	91	93	0.0421	0.2932	0	2500	0	0	0	0	1	-360	360;
	91	95	0.0261	0.1844	0	2500	0	0	0	0	1	-360	360;
	91	98	0.012	0.0854	0	789.941803	0	0	0	0	1	-360	360;
	91	110	0.0017	0.0117	0	2500	0	0	0	0	1	-360	360;
	92	97	0.0008	0.0303	0	2500	0	0	0	0	1	-360	360;
	93	94	0.0042	0.0283	0	2500	0	0	0	0	1	-360	360;
	93	95	0.0187	0.1284	0	2500	0	0	0	0	1	-360	360;
	94	111	0.0049	0.0336	0	2500	0	0	0	0	1	-360	360;
	95	96	0.0136	0.0955	0	2500	0	0	0	0	1	-360	360;
	96	97	0.016	0.0767	0	2500	0	0	0	0	1	-360	360;
	98	99	0.0003	0.0092	0	2500	0	0	0	0	1	-360	360;
	99	100	0.001	0.0702	0	2500	0	0	0	0	1	-360	360;
	101	104	0.0077	0.0773	0	2500	0	0	0	0	1	-360	360;
	101	105	0.0188	0.1493	0	2500	0	0	0	0	1	-360	360;
	101	107	0.0076	0.0751	0	2500	0	0	0	0	1	-360	360;
	101	108	0.0078	0.0772	0	2500	0	0	0	0	1	-360	360;
	101	109	0.0078	0.0783	0	2500	0	0	0	0	1	-360	360;
	101	110	0.0482	0.2636	0	2500	0	0	0	0	1	-360	360;
	104	106	0.0018	0.018	0	2500	0	0	0	0	1	-360	360;
	104	110	0.0006	0.0062	0	2500	0	0	0	0	1	-360	360;
	105	106	0.0165	0.1156	0	2500	0	0	0	0	1	-360	360;
	105	107	0.0115	0.1103	0	2500	0	0	0	0	1	-360	360;
	105	111	0.0131	0.0809	0.13	2500	0	0	0	0	1	-360	360;
	105	112	0.008	0.0497	0.3	2500	0	0	0	0	1	-360	360;
	105	113	0.3824	0.9479	0	2500	0	0	0	0	1	-360	360;
	107	110	0.0021	0.0186	0	2500	0	0	0	0	1	-360	360;
	108	110	0.0026	0.0194	0	2500	0	0	0	0	1	-360	360;
	108	111	0.0059	0.0577	0	2500	0	0	0	0	1	-360	360;
	109	110	0.0026	0.0194	0	2500	0	0	0	0	1	-360	360;
	109	111	0.0059	0.0577	0	2500	0	0	0	0	1	-360	360;
	112	113	0.0101	0.0873	0	2500	0	0	0	0	1	-360	360;
	114	117	0.0663	0.3696	0	2500	0	0	0	0	1	-360	360;
	114	119	0.0876	0.254	0	2500	0	0	0	0	1	-360	360;
	114	121	0.0063	0.0802	0	2500	0	0	0	0	1	-360	360;
	115	116	0.0733	0.9799	0	2500	0	0	0	0	1	-360	360;
	115	117	0.001	0.0114	0	2500	0	0	0	0	1	-360	360;
	115	118	0.1657	0.1551	0	2500	0	0	0	0	1	-360	360;
	115	119	0.0033	0.0392	0	2500	0	0	0	0	1	-360	360;
	115	121	0.022	0.2984	0	2500	0	0	0	0	1	-360	360;
	115	135	0	0.6309	0	549.442667	0	0	0	0	1	-360	360;
	115	139	0	0.1243	0	549.442667	0	0	0	0	1	-360	360;
	116	117	0.0474	0.2631	0	2500	0	0	0	0	1	-360	360;
	116	118	0.0117	0.0744	0	2500	0	0	0	0	1	-360	360;
	116	120	0.2307	0.7041	0	2500	0	0	0	0	1	-360	360;
	116	121	0.0951	0.4576	0	2500	0	0	0	0	1	-360	360;
	116	122	0.0033	0.1287	0	2500	0	0	0	0	1	-360	360;
	117	118	0.002	0.0199	0	2500	0	0	0	0	1	-360	360;
	117	119	0.0017	0.0189	0	2500	0	0	0	0	1	-360	360;
	117	120	0.0067	0.0797	0	2500	0	0	0	0	1	-360	360;
	117	121	0.015	0.0869	0	2500	0	0	0	0	1	-360	360;
	117	122	0.0383	0.0886	0	2500	0	0	0	0	1	-360	360;
	118	120	0.005	0.0629	0	2500	0	0	0	0	1	-360	360;
	118	121	0.1391	0.4798	0	2500	0	0	0	0	1	-360	360;
	118	122	0.095	0.5071	0	2500	0	0	0	0	1	-360	360;
	118	123	0.0014	0.0174	0	2500	0	0	0	0	1	-360	360;
	119	120	0.1065	0.3498	0	2500	0	0	0	0	1	-360	360;
	119	121	0.1636	0.5804	0	2500	0	0	0	0	1	-360	360;
	121	122	0.125	0.4699	0	2500	0	0	0	0	1	-360	360;
	122	135	0.0573	0.7581	0	549.442667	0	0	0	0	1	-360	360;
	122	139	0	0.1532	0	549.442667	0	0	0	0	1	-360	360;
	124	125	0.0025	0.073	0	2500	0	0	0	0	1	-360	360;
	124	126	0	0.0839	0	2500	0	0	0	0	1	-360	360;
	124	127	0.0004	0.0105	0.72	2500	0	0	0	0	1	-360	360;
	124	128	0.0005	0.0117	0.84	2500	0	0	0	0	1	-360	360;
	125	126	0	0.0411	0	2500	0	0	0	0	1	-360	360;
	125	128	0.0049	0.2634	0	2500	0	0	0	0	1	-360	360;
	126	127	0	0.2532	0	2500	0	0	0	0	1	-360	360;
	126	128	0	0.2741	0	2500	0	0	0	0	1	-360	360;
	126	138	0	0.6805	0	2500	0	0	0	0	1	-360	360;
	127	128	0	0.1339	0	773.970762	0	0	0	0	1	-360	360;
	127	132	0.0009	0.0221	1.62	2500	0	0	0	0	1	-360	360;
	128	129	0	0.1381	0	773.970762	0	0	0	0	1	-360	360;
	128	130	0.0007	0.0175	1.26	773.970762	0	0	0	0	1	-360	360;
	129	130	0.0004	0.0085	0.6	2500	0	0	0	0	1	-360	360;
	130	131	0.0002	0.0038	0.54	2500	0	0	0	0	1	-360	360;
	130	132	0.0007	0.0173	1.25	2500	0	0	0	0	1	-360	360;
	131	133	0.002	0.039	2.77	2500	0	0	0	0	1	-360	360;
	131	135	0.0057	0.0699	0	2500	0	0	0	0	1	-360	360;
	131	139	0.0059	0.1052	0	2500	0	0	0	0	1	-360	360;
	132	133	0.0012	0.0293	2.09	2500	0	0	0	0	1	-360	360;
	132	134	0.00235	0.04388	0	2500	0	0	0	0	1	-360	360;
	132	135	0.0012	0.0288	2.06	2500	0	0	0	0	1	-360	360;
	132	138	0.0331	0.4224	0	2500	0	0	0	0	1	-360	360;
	133	135	0.0003	0.0063	0.45	2500	0	0	0	0	1	-360	360;
	134	135	0.0046	0.0625	0	2500	0	0	0	0	1	-360	360;
	134	136	0.0046	0.0782	0.79	2500	0	0	0	0	1	-360	360;
	135	139	0.0177	0.0661	0	2500	0	0	0	0	1	-360	360;
	136	139	0	0.2054	0	2500	0	0	0	0	1	-360	360;
	137	138	0.2553	0.718	0	2500	0	0	0	0	1	-360	360;
	1	21	0	0.02	0	2500	0	0	1	0	1	-360	360;
	3	2	0.0016	0.0435	0	2500	0	0	1	0	1	-360	360;
	3	4	0.0016	0.0435	0	2500	0	0	1	0	1	-360	360;
	10	11	0.0007	0.0138	0	2500	0	0	1	0	1	-360	360;
	10	22	0.0007	0.0142	0	2500	0	0	1	0	1	-360	360;
	11	23	0.0009	0.018	0	2500	0	0	1	0	1	-360	360;
	13	24	0	0.0143	0	2500	0	0	1	0	1	-360	360;
	14	25	0.0005	0.0272	0	2500	0	0	1	0	1	-360	360;
	16	27	0.0006	0.0232	0	2500	0	0	1	0	1	-360	360;
	20	26	0.0008	0.0156	0	2500	0	0	1	0	1	-360	360;
	28	29	0	0.0181	0	2500	0	0	1	0	1	-360	360;
	33	36	0	0.025	0	2500	0	0	1	0	1	-360	360;
	40	41	0	0.0161	0	2500	0	0	1	0	1	-360	360;
	49	48	0.0156	0.1536	0	2500	0	0	1	0	1	-360	360;
	48	100	0.001	0.1595	0	2500	0	0	1	0	1	-360	360;
	54	52	0.002	0.0233	0	789.941803	0	0	1	0	1	-360	360;
	54	55	0	0.013	0	2500	0	0	1	0	1	-360	360;
	56	57	0	0.142	0	2500	0	0	1	0	1	-360	360;
	58	59	0	0.0093	0	2500	0	0	1	0	1	-360	360;
	60	61	0	0.064	0	2500	0	0	1	0	1	-360	360;
	75	76	0.0001	0.0074	0	2500	0	0	1	0	1	-360	360;
	84	83	0.0052	0.0174	0	2500	0	0	1	0	1	-360	360;
	85	86	0	0.0057	0	2500	0	0	1	0	1	-360	360;
	87	85	0.0002	0.0246	0	2500	0	0	1	0	1	-360	360;
	101	102	0.0007	0.0211	0	2500	0	0	1	0	1	-360	360;
	101	103	0.0006	0.0151	0	2500	0	0	1	0	1	-360	360;
	137	136	0.0008	0.0239	0	2500	0	0	1	0	1	-360	360;
];

%%-----  OPF Data  -----%%
%% generator cost data
%	1	startup	shutdown	n	x1	y1	...	xn	yn
%	2	startup	shutdown	n	c(n-1)	...	c0
mpc.gencost = [
	2	0	0	3	0	2.14	56690.1342;
	2	0	0	3	0	26.7511829	2882.87785;
	2	0	0	3	0	29.3552649	2451.24287;
	2	0	0	3	0	26.6086809	1318.09432;
	2	0	0	3	0	27.6659343	5385.66507;
	2	0	0	3	0	28.7459946	2795.81107;
	2	0	0	3	0	18.2689608	1726.79089;
	2	0	0	3	0	8.97944339	9438.8712;
	2	0	0	3	0	26.529977	3643.09984;
	2	0	0	3	0	26.0833523	4319.96344;
	2	0	0	3	0	0	4974.59732;
	2	0	0	3	0	0	242.60274;
	2	0	0	3	0	2.14	47967.4763;
	2	0	0	3	0	25.4039338	5153.95508;
	2	0	0	3	0	2.14	19425.985;
	2	0	0	3	0	0	0;
	2	0	0	3	0	0	0;
	2	0	0	3	0	0	0;
	2	0	0	3	0	0	8378.83562;
	2	0	0	3	0	0	331.917808;
	2	0	0	3	0	25.0345853	3069.53459;
	2	0	0	3	0	26.3115917	3912.3145;
	2	0	0	3	0	84.6059873	0;
	2	0	0	3	0	26.5041754	6348.61943;
	2	0	0	3	0	2.14	23130.9005;
	2	0	0	3	0	26.0711283	1544.49986;
	2	0	0	3	0	29.3126221	7266.03584;
	2	0	0	3	0	26.6023139	2597.66301;
	2	0	0	3	0	33.8499079	4945.89108;
	2	0	0	3	0	27.6411935	3083.3164;
	2	0	0	3	0	0	0;
	2	0	0	3	0	0	0;
	2	0	0	3	0	0	0;
	2	0	0	3	0	0	0;
	2	0	0	3	0	0	2860.5468;
	2	0	0	3	0	0	0;
	2	0	0	3	0	26.6869029	5688.36301;
	2	0	0	3	0	25.8120284	6524.58847;
	2	0	0	3	0	2.14	57144.5524;
	2	0	0	3	0	14.4354407	18141.3414;
	2	0	0	3	0	39.4263956	11883.0015;
	2	0	0	3	0	17.0080088	37093.7137;
	2	0	0	3	0	2.14	77390.0045;
	2	0	0	3	0	9.712622	32840.146;
	2	0	0	3	0	7.23068627	36528.8269;
	2	0	0	3	0	22.1102515	13727.4716;
	2	0	0	3	0	25.1392793	6491.59675;
	2	0	0	3	0	19.632447	35838.9832;
];

%% bus names
mpc.bus_name = {
	'MILLSTONE PT';
	'MONTVILLE   ';
	'MONTVILLE   ';
	'MONTVILLE   ';
	'CARD ST     ';
	'SHERMAN RD  ';
	'MEDWAY      ';
	'MILLBURY    ';
	'CARPENTER HL';
	'BRAYTON PT  ';
	'BRAYTON PT  ';
	'BRIDGEWATER ';
	'PILGRIM     ';
	'CANAL       ';
	'WALPOLA     ';
	'VERMONT YNK ';
	'SCOBIE      ';
	'SANDY POND  ';
	'POWNAL      ';
	'MAINE YANKEE';
	'MILLSTONE PT';
	'BRAYTON PT  ';
	'BRAYTON PT  ';
	'PILGRIM     ';
	'CANAL       ';
	'MAINE YANKEE';
	'VERMONT YNK ';
	'NORTHFIELD  ';
	'NORTHFIELD  ';
	'LUDLOW      ';
	'MANCHESTER  ';
	'SCOVILL ROCK';
	'HADDAM NECK ';
	'BLACK POND  ';
	'SOUTHINGTEN ';
	'CONN YANKEE ';
	'NEW SEATHED ';
	'GILBOA      ';
	'LEEDS       ';
	'NEW SEATHED ';
	'ROTTERDAM   ';
	'ALBANY      ';
	'EDIC        ';
	'PORTER      ';
	'PORTER      ';
	'COLTON      ';
	'MOSES W     ';
	'MOSES E     ';
	'PLATTSBURGH ';
	'CLAY        ';
	'CLAY        ';
	'ROCHESTER   ';
	'ROCHESTER   ';
	'NIAGARA W   ';
	'NIAGARA E   ';
	'HUNTLEY     ';
	'HUNTLEY     ';
	'GARDENVILLE ';
	'GARDENVILLE ';
	'DUNKIRK     ';
	'DUNKIRK     ';
	'STOLLE RD   ';
	'MEYER       ';
	'MEYER       ';
	'GESONIDGE   ';
	'WATERCURE   ';
	'WRHL        ';
	'HILLSIDE    ';
	'BINGHAMTON  ';
	'BINGHAMTON  ';
	'BINGHAMTON  ';
	'LAPEER      ';
	'PLEASANT VLY';
	'MILLWOOD    ';
	'RAMAPO      ';
	'RAMAPO      ';
	'BUCHANAN    ';
	'CE UG       ';
	'RAV A-3     ';
	'NORTHPORT   ';
	'GOETHALS    ';
	'AK-3        ';
	'KEITH       ';
	'KEITH JCT   ';
	'LAMBTON     ';
	'LAMBTON     ';
	'LAMBTON     ';
	'SCOTT       ';
	'SCOTT       ';
	'VIDA        ';
	'RICHVIEW    ';
	'HANMER      ';
	'ESSA        ';
	'ORANGEVILLE ';
	'DES JOAC    ';
	'HOLDEN      ';
	'MARTINDELE  ';
	'STLA        ';
	'PVR         ';
	'PHAS        ';
	'SAB 2       ';
	'BP 76       ';
	'PA 27       ';
	'BEACH       ';
	'BUCHANAN    ';
	'NEALE       ';
	'NEALE       ';
	'S CT        ';
	'SLT         ';
	'BURLINGTON  ';
	'DETWIERER   ';
	'CHATHAM     ';
	'LAUZON      ';
	'MARYSVILLE  ';
	'ST CLAIR    ';
	'WATERMAN    ';
	'PONTIAC     ';
	'WAYNE       ';
	'THETFORD    ';
	'ARGENTA     ';
	'SC415       ';
	'WATERMAN    ';
	'MONROE      ';
	'BRANCHBURG  ';
	'LINDON      ';
	'HUDSON      ';
	'ALBURTIS    ';
	'WHITPAIN    ';
	'KEENEY      ';
	'PEACH BOTTOM';
	'CONASTONE   ';
	'JUNIATA     ';
	'CONEMAUGH   ';
	'HOMER CITY  ';
	'KEYSTONE    ';
	'ERIE W      ';
	'ERIE S      ';
	'E TOMANO    ';
	'KYGER       ';
	'TE          ';
};
